/*--------------------------------*- C++ -*----------------------------------*\
| =========                 |                                                 |
| \\      /  F ield         | OpenFOAM: The Open Source CFD Toolbox           |
|  \\    /   O peration     | Version:  2.1.0                                 |
|   \\  /    A nd           | Web:      www.OpenFOAM.org                      |
|    \\/     M anipulation  |                                                 |
\*---------------------------------------------------------------------------*/
FoamFile
{
    version     2.0;
    format      ascii;
    class       dictionary;
    location    "constant";
    object      ANNProperties;
}
// * * * * * * * * * * * * * * * * * * * * * * * * * * * * * * * * * * * * * //

ANN_scaler         Standard;

in_scale
{
in_1_mean      0.4999999999999999;
in_1_var        0.2892519086652557;
in_2_mean      0.4949999999959955;
in_2_var        0.3159509455594174;
in_3_mean      0.5000000000000324;
in_3_var        0.2892519086655237;
}

out_scale
{
out_1_mean      0.1121079534440103;
out_1_var       0.0426125035204322;
out_2_mean      0.0050576506362650;
out_2_var       0.0060149066951871;
out_3_mean      0.0074201615268215;
out_3_var       0.0102671571976970;
out_4_mean      0.3902602471463928;
out_4_var       0.1363730691662354;
out_5_mean      0.0110028139562614;
out_5_var       0.0147071294580590;
out_6_mean      0.2513777876969299;
out_6_var       0.1073862973086250;
out_7_mean      0.0167120604981467;
out_7_var       0.0093845131656524;
out_8_mean      0.0182667525221380;
out_8_var       0.0159984620004068;
out_9_mean      0.7350347640886691;
out_9_var       0.2062934637594329;
out_10_mean      0.2152808969457236;
out_10_var       0.1000664830825949;
out_11_mean      0.1627449117417809;
out_11_var       0.0802050096256412;
out_12_mean      0.0570861219763779;
out_12_var       0.0273965641902137;
out_13_mean      0.6866322519255641;
out_13_var       0.1767017466561650;
out_14_mean      8.0553410390390656;
out_14_var       1.1661353060101767;
out_15_mean      2.7951803349889142;
out_15_var       3.1225226020677006;
}
nr_features          15;

runningMode         gpu;

input_layer         //input_1;
output_layer          //output_1; //dense_2;

out_scaler             cbrt_std;

// ************************************************************************* //