/*--------------------------------*- C++ -*----------------------------------*\
| =========                 |                                                 |
| \\      /  F ield         | OpenFOAM: The Open Source CFD Toolbox           |
|  \\    /   O peration     | Version:  2.1.0                                 |
|   \\  /    A nd           | Web:      www.OpenFOAM.org                      |
|    \\/     M anipulation  |                                                 |
\*---------------------------------------------------------------------------*/
FoamFile
{
    version     2.0;
    format      ascii;
    class       dictionary;
    location    "constant";
    object      ANNProperties;
}
// * * * * * * * * * * * * * * * * * * * * * * * * * * * * * * * * * * * * * //

ANN_scaler         Standard;

in_scale
{
in_1_mean      0.4809890109890053;
in_1_var        0.2933739126550214;
in_2_mean      0.4950000000002320;
in_2_var        0.3159509455595617;
in_3_mean      0.4809890109890798;
in_3_var        0.2933739126550025;
}

out_scale
{
out_1_mean      0.1098474433200125;
out_1_var       0.0454739166049722;
out_2_mean      0.0048557516223679;
out_2_var       0.0059632734028660;
out_3_mean      0.0070833931362276;
out_3_var       0.0100279545674108;
out_4_mean      0.3990022082747761;
out_4_var       0.1405373755901356;
out_5_mean      0.0106277254285128;
out_5_var       0.0145151598430983;
out_6_mean      0.2453148501029602;
out_6_var       0.1128435979583049;
out_7_mean      0.0164197757258869;
out_7_var       0.0097976399699271;
out_8_mean      0.0176186787782254;
out_8_var       0.0162171351796328;
out_9_mean      0.7194754376757286;
out_9_var       0.2169008143762202;
out_10_mean      0.2091964450741780;
out_10_var       0.1040843868543870;
out_11_mean      0.1582109000122447;
out_11_var       0.0834662320013695;
out_12_mean      0.0557502642265857;
out_12_var       0.0285401504439861;
out_13_mean      0.6940072279855899;
out_13_var       0.1841320482511655;
out_14_mean      8.0251116554827959;
out_14_var       1.1771280751641118;
out_15_mean      2.7128404844927854;
out_15_var       3.1444231410698200;
}
nr_features          15;

runningMode         gpu;

input_layer         //input_1;
output_layer          //output_1; //dense_2;

out_scaler             cbrt_std;

// ************************************************************************* //