/*--------------------------------*- C++ -*----------------------------------*\
| =========                 |                                                 |
| \\      /  F ield         | OpenFOAM: The Open Source CFD Toolbox           |
|  \\    /   O peration     | Version:  2.1.0                                 |
|   \\  /    A nd           | Web:      www.OpenFOAM.org                      |
|    \\/     M anipulation  |                                                 |
\*---------------------------------------------------------------------------*/
FoamFile
{
    version     2.0;
    format      ascii;
    class       dictionary;
    location    "constant";
    object      ANNProperties;
}
// * * * * * * * * * * * * * * * * * * * * * * * * * * * * * * * * * * * * * //

ANN_scaler         Standard;

in_scale
{
in_1_mean      0.4999999999999999;
in_1_var        0.2892519086652557;
in_2_mean      0.4949999999959955;
in_2_var        0.3159509455594174;
in_3_mean      0.5000000000000324;
in_3_var        0.2892519086655237;
}

out_scale
{
out_1_mean      0.1121079534440111;
out_1_var       0.0426125035204318;
out_2_mean      0.0050576506362651;
out_2_var       0.0060149066951870;
out_3_mean      0.0074201615268215;
out_3_var       0.0102671571976969;
out_4_mean      0.3902602471464761;
out_4_var       0.1363730691662358;
out_5_mean      0.0110028139562621;
out_5_var       0.0147071294580590;
out_6_mean      0.2513777876969209;
out_6_var       0.1073862973086343;
out_7_mean      0.0167120604981460;
out_7_var       0.0093845131656530;
out_8_mean      0.0182667525221375;
out_8_var       0.0159984620004076;
out_9_mean      0.7350347640886405;
out_9_var       0.2062934637594342;
out_10_mean      0.2152808969457256;
out_10_var       0.1000664830826007;
out_11_mean      0.1627449117418072;
out_11_var       0.0802050096256427;
out_12_mean      0.0570861219763698;
out_12_var       0.0273965641902119;
out_13_mean      0.6866322519254928;
out_13_var       0.1767017466561618;
out_14_mean      8.0553410390380318;
out_14_var       1.1661353060101920;
out_15_mean      2.7951803349889115;
out_15_var       3.1225226020676273;
}
nr_features         15;

input_layer         //input_1;
output_layer        //dense_2;

// ************************************************************************* //